@<TRIPOS>MOLECULE
SRUG
 280 289 0 0 0
SMALL
GASTEIGER

@<TRIPOS>ATOM
      1 N         -12.4023    5.7199   -0.9077 N.am    1  UNL1       -0.3280
      2 C         -11.1587    6.1864   -0.6972 C.2     1  UNL1        0.2279
      3 C         -10.0335    5.2224   -1.0210 C.3     1  UNL1        0.0914
      4 N          -9.7002    4.3168    0.1068 N.am    1  UNL1       -0.2846
      5 C         -10.3725    2.9891    0.0104 C.3     1  UNL1        0.0489
      6 C          -9.4547    1.9485   -0.6751 C.3     1  UNL1       -0.0422
      7 C         -11.0836    2.5141    1.2841 C.ar    1  UNL1       -0.0273
      8 C         -12.0574    3.3358    1.8587 C.ar    1  UNL1       -0.0568
      9 C         -12.7463    2.9389    3.0025 C.ar    1  UNL1       -0.0614
     10 C         -12.4889    1.6969    3.5738 C.ar    1  UNL1       -0.0617
     11 C         -11.5481    0.8521    2.9928 C.ar    1  UNL1       -0.0614
     12 C         -10.8510    1.2554    1.8549 C.ar    1  UNL1       -0.0568
     13 C          -8.7367    4.6934    1.0072 C.2     1  UNL1        0.2339
     14 C          -8.3167    3.7741    2.1559 C.3     1  UNL1        0.0912
     15 N          -8.9594    4.0483    3.4680 N.am    1  UNL1       -0.2914
     16 C          -9.0788    5.4777    3.8335 C.3     1  UNL1        0.0154
     17 C         -10.4430    6.0909    3.4595 C.3     1  UNL1       -0.0323
     18 C         -10.3188    7.6049    3.2078 C.3     1  UNL1       -0.0112
     19 C         -11.6604    8.1999    2.7360 C.3     1  UNL1       -0.0353
     20 N         -11.5154    9.3824    1.7570 N.4     1  UNL1        0.2185
     21 H         -11.0644    9.0828    0.8536 H       1  UNL1        0.1994
     22 H         -10.9435   10.1700    2.1501 H       1  UNL1        0.1994
     23 H         -12.4487    9.7750    1.5076 H       1  UNL1        0.1994
     24 C          -9.2544    3.0869    4.3902 C.2     1  UNL1        0.2334
     25 C          -8.5640    1.7271    4.3116 C.3     1  UNL1        0.0918
     26 N          -7.1579    1.7314    4.7944 N.am    1  UNL1       -0.2846
     27 C          -7.0721    1.8765    6.2775 C.3     1  UNL1        0.0489
     28 C          -6.9987    0.5057    6.9880 C.3     1  UNL1       -0.0422
     29 C          -6.0911    2.9475    6.7680 C.ar    1  UNL1       -0.0273
     30 C          -6.0972    4.2029    6.1509 C.ar    1  UNL1       -0.0568
     31 C          -5.2204    5.2046    6.5614 C.ar    1  UNL1       -0.0614
     32 C          -4.3283    4.9653    7.6025 C.ar    1  UNL1       -0.0617
     33 C          -4.3203    3.7253    8.2345 C.ar    1  UNL1       -0.0614
     34 C          -5.1992    2.7244    7.8254 C.ar    1  UNL1       -0.0568
     35 C          -6.1187    1.5515    3.9151 C.2     1  UNL1        0.2339
     36 C          -4.6747    1.3875    4.3925 C.3     1  UNL1        0.0918
     37 N          -4.2948    0.0219    4.8445 N.am    1  UNL1       -0.2846
     38 C          -4.5422   -1.0351    3.8227 C.3     1  UNL1        0.0489
     39 C          -3.2734   -1.8062    3.4252 C.ar    1  UNL1       -0.0273
     40 C          -2.1212   -1.0831    3.0960 C.ar    1  UNL1       -0.0568
     41 C          -0.9514   -1.7366    2.7142 C.ar    1  UNL1       -0.0614
     42 C          -0.9207   -3.1258    2.6443 C.ar    1  UNL1       -0.0617
     43 C          -2.0601   -3.8585    2.9631 C.ar    1  UNL1       -0.0614
     44 C          -3.2297   -3.2053    3.3489 C.ar    1  UNL1       -0.0568
     45 C          -5.7818   -1.8954    4.1712 C.3     1  UNL1       -0.0422
     46 C          -3.5309   -0.1436    5.9705 C.2     1  UNL1        0.2339
     47 C          -3.4287   -1.5280    6.6145 C.3     1  UNL1        0.0916
     48 N          -2.1415   -1.8267    7.2979 N.am    1  UNL1       -0.2871
     49 C          -1.9759   -1.1051    8.5863 C.3     1  UNL1        0.0403
     50 C          -0.6881   -0.3075    8.7553 C.ar    1  UNL1       -0.0299
     51 C          -0.0532   -0.3103    9.9984 C.ar    1  UNL1       -0.0536
     52 C           1.1626    0.3452   10.1712 C.ar    1  UNL1       -0.0196
     53 C           1.7570    1.0151    9.1050 C.ar    1  UNL1        0.1201
     54 O           2.9787    1.6203    9.3300 O.3     1  UNL1       -0.4951
     55 C           3.5722    2.5748    8.4197 C.3     1  UNL1        0.0788
     56 C           1.1203    1.0329    7.8599 C.ar    1  UNL1       -0.0196
     57 C          -0.0959    0.3735    7.6878 C.ar    1  UNL1       -0.0536
     58 C          -1.4425   -2.9637    6.9931 C.2     1  UNL1        0.2337
     59 C          -0.1273   -3.2413    7.7225 C.3     1  UNL1        0.0918
     60 N           0.9083   -4.0630    7.0369 N.am    1  UNL1       -0.2846
     61 C           1.0941   -3.7987    5.5797 C.3     1  UNL1        0.0489
     62 C           1.2094   -5.0793    4.7381 C.ar    1  UNL1       -0.0273
     63 C           0.2044   -6.0464    4.8431 C.ar    1  UNL1       -0.0568
     64 C           0.2533   -7.2146    4.0860 C.ar    1  UNL1       -0.0614
     65 C           1.3118   -7.4328    3.2097 C.ar    1  UNL1       -0.0617
     66 C           2.3215   -6.4814    3.0963 C.ar    1  UNL1       -0.0614
     67 C           2.2729   -5.3129    3.8549 C.ar    1  UNL1       -0.0568
     68 C           2.2183   -2.7595    5.3611 C.3     1  UNL1       -0.0422
     69 C           1.8245   -4.7990    7.7406 C.2     1  UNL1        0.2339
     70 C           1.8450   -4.6805    9.2648 C.3     1  UNL1        0.0918
     71 N           3.1914   -4.9338    9.8363 N.am    1  UNL1       -0.2846
     72 C           4.1582   -3.7909    9.8638 C.3     1  UNL1        0.0489
     73 C           3.6930   -2.4462    9.2490 C.3     1  UNL1       -0.0422
     74 C           4.6551   -3.5356   11.2833 C.ar    1  UNL1       -0.0273
     75 C           3.7477   -3.3618   12.3325 C.ar    1  UNL1       -0.0568
     76 C           4.2054   -3.1470   13.6308 C.ar    1  UNL1       -0.0614
     77 C           5.5733   -3.1024   13.8893 C.ar    1  UNL1       -0.0617
     78 C           6.4831   -3.2683   12.8475 C.ar    1  UNL1       -0.0614
     79 C           6.0258   -3.4816   11.5483 C.ar    1  UNL1       -0.0568
     80 C           3.4958   -6.1821   10.3024 C.2     1  UNL1        0.2339
     81 C           4.9615   -6.5682   10.4930 C.3     1  UNL1        0.0912
     82 N           5.2577   -7.9671   10.0925 N.am    1  UNL1       -0.2914
     83 C           4.8621   -8.3147    8.7087 C.3     1  UNL1        0.0154
     84 C           6.0661   -8.3495    7.7419 C.3     1  UNL1       -0.0323
     85 C           5.8901   -9.3875    6.6093 C.3     1  UNL1       -0.0112
     86 C           6.3295  -10.8147    7.0196 C.3     1  UNL1       -0.0353
     87 N           5.5141  -11.5144    8.0754 N.4     1  UNL1        0.2185
     88 H           5.8773  -12.4657    8.2512 H       1  UNL1        0.1994
     89 H           5.5521  -10.9920    8.9687 H       1  UNL1        0.1994
     90 H           4.5240  -11.5902    7.7904 H       1  UNL1        0.1994
     91 C           5.8272   -8.8991   10.9080 C.2     1  UNL1        0.2334
     92 C           6.4023   -8.4463   12.2468 C.3     1  UNL1        0.0918
     93 N           7.2305   -9.4808   12.9130 N.am    1  UNL1       -0.2846
     94 C           6.6456   -9.9979   14.1812 C.3     1  UNL1        0.0489
     95 C           7.3231   -9.3816   15.4040 C.ar    1  UNL1       -0.0273
     96 C           6.7081   -8.3053   16.0505 C.ar    1  UNL1       -0.0568
     97 C           7.3084   -7.7041   17.1552 C.ar    1  UNL1       -0.0614
     98 C           8.5336   -8.1718   17.6231 C.ar    1  UNL1       -0.0617
     99 C           9.1543   -9.2429   16.9865 C.ar    1  UNL1       -0.0614
    100 C           8.5535   -9.8456   15.8832 C.ar    1  UNL1       -0.0568
    101 C           6.4984  -11.5361   14.2590 C.3     1  UNL1       -0.0422
    102 C           8.4663   -9.8472   12.4531 C.2     1  UNL1        0.2339
    103 C           9.0909   -9.0316   11.3204 C.3     1  UNL1        0.0918
    104 N          10.4988   -9.3987   11.0283 N.am    1  UNL1       -0.2846
    105 C          10.8033   -9.9694    9.6846 C.3     1  UNL1        0.0489
    106 C          10.5622  -11.4755    9.5918 C.ar    1  UNL1       -0.0273
    107 C          11.6214  -12.3169    9.2401 C.ar    1  UNL1       -0.0568
    108 C          11.4323  -13.6942    9.1489 C.ar    1  UNL1       -0.0614
    109 C          10.1799  -14.2447    9.4074 C.ar    1  UNL1       -0.0617
    110 C           9.1156  -13.4150    9.7509 C.ar    1  UNL1       -0.0614
    111 C           9.3037  -12.0365    9.8352 C.ar    1  UNL1       -0.0568
    112 C          10.1474   -9.2242    8.5011 C.3     1  UNL1       -0.0422
    113 C          11.4451   -9.1980   11.9943 C.2     1  UNL1        0.2339
    114 C          12.7996   -9.8868   11.8464 C.3     1  UNL1        0.0916
    115 N          13.5241  -10.2184   13.0995 N.am    1  UNL1       -0.2873
    116 C          12.7222  -10.9452   14.1158 C.3     1  UNL1        0.0403
    117 C          12.7823  -10.3536   15.5211 C.ar    1  UNL1       -0.0299
    118 C          12.8314   -8.9729   15.7322 C.ar    1  UNL1       -0.0536
    119 C          12.9064   -8.4595   17.0246 C.ar    1  UNL1       -0.0196
    120 C          12.9394   -9.3163   18.1222 C.ar    1  UNL1        0.1201
    121 O          13.0191   -8.7494   19.3808 O.3     1  UNL1       -0.4951
    122 C          13.3127   -9.5073   20.5773 C.3     1  UNL1        0.0788
    123 C          12.8860  -10.6985   17.9180 C.ar    1  UNL1       -0.0196
    124 C          12.8057  -11.2099   16.6237 C.ar    1  UNL1       -0.0536
    125 C          14.8856  -10.1031   13.1489 C.2     1  UNL1        0.2302
    126 C          15.6356  -10.6308   14.3712 C.3     1  UNL1        0.0739
    127 N          17.0497  -10.9872   14.1045 N.3     1  UNL1       -0.3016
    128 C          17.2280  -12.1286   13.1764 C.3     1  UNL1        0.0305
    129 C          16.6466  -13.4212   13.7384 C.ar    1  UNL1       -0.0307
    130 C          15.6585  -14.1062   13.0276 C.ar    1  UNL1       -0.0571
    131 C          15.1163  -15.2858   13.5348 C.ar    1  UNL1       -0.0615
    132 C          15.5572  -15.7871   14.7576 C.ar    1  UNL1       -0.0617
    133 C          16.5390  -15.1065   15.4740 C.ar    1  UNL1       -0.0615
    134 C          17.0810  -13.9270   14.9672 C.ar    1  UNL1       -0.0571
    135 C          18.7254  -12.2832   12.8470 C.3     1  UNL1       -0.0455
    136 O          15.4966   -9.5713   12.2407 O.2     1  UNL1       -0.2742
    137 O          11.1962   -8.5053   12.9623 O.2     1  UNL1       -0.2738
    138 O           9.0343  -10.8339   12.8779 O.2     1  UNL1       -0.2738
    139 O           5.9663  -10.0461   10.5184 O.2     1  UNL1       -0.2739
    140 O           2.6349   -7.0328   10.4345 O.2     1  UNL1       -0.2738
    141 O           2.7007   -5.4326    7.1796 O.2     1  UNL1       -0.2738
    142 O          -1.9094   -3.7993    6.2444 O.2     1  UNL1       -0.2739
    143 O          -3.1150    0.8272    6.5714 O.2     1  UNL1       -0.2738
    144 O          -6.3378    1.4553    2.7225 O.2     1  UNL1       -0.2738
    145 O          -9.9011    3.3687    5.3807 O.2     1  UNL1       -0.2739
    146 O          -8.2220    5.7929    0.9166 O.2     1  UNL1       -0.2738
    147 O         -10.9817    7.2795   -0.1940 O.2     1  UNL1       -0.2743
    148 H         -13.2055    6.2958   -0.7096 H       1  UNL1        0.1450
    149 H         -12.5356    4.7992   -1.3002 H       1  UNL1        0.1450
    150 H         -10.3309    4.6414   -1.8992 H       1  UNL1        0.0560
    151 H          -9.1617    5.8168   -1.3095 H       1  UNL1        0.0560
    152 H         -11.1921    3.1141   -0.7031 H       1  UNL1        0.0548
    153 H          -8.5938    1.6928   -0.0551 H       1  UNL1        0.0251
    154 H          -9.0805    2.3393   -1.6242 H       1  UNL1        0.0251
    155 H         -10.0094    1.0328   -0.8930 H       1  UNL1        0.0251
    156 H         -12.2877    4.2982    1.4142 H       1  UNL1        0.0621
    157 H         -13.4916    3.5950    3.4454 H       1  UNL1        0.0618
    158 H         -13.0278    1.3837    4.4649 H       1  UNL1        0.0618
    159 H         -11.3545   -0.1243    3.4306 H       1  UNL1        0.0618
    160 H         -10.1230    0.5708    1.4293 H       1  UNL1        0.0621
    161 H          -7.2361    3.8950    2.2700 H       1  UNL1        0.0560
    162 H          -8.5022    2.7500    1.8461 H       1  UNL1        0.0560
    163 H          -8.9236    5.5955    4.9101 H       1  UNL1        0.0465
    164 H          -8.2708    6.0308    3.3492 H       1  UNL1        0.0465
    165 H         -11.1726    5.8836    4.2465 H       1  UNL1        0.0282
    166 H         -10.8075    5.6279    2.5441 H       1  UNL1        0.0282
    167 H          -9.9807    8.1162    4.1127 H       1  UNL1        0.0317
    168 H          -9.5601    7.7642    2.4365 H       1  UNL1        0.0317
    169 H         -12.2563    7.4417    2.2186 H       1  UNL1        0.0813
    170 H         -11.4909    9.0035    2.0687 H       1  UNL1        0.0813
    171 H          -8.6318    1.3404    3.2962 H       1  UNL1        0.0560
    172 H          -9.1474    1.0481    4.9398 H       1  UNL1        0.0560
    173 H          -8.0412    2.2599    6.6043 H       1  UNL1        0.0548
    174 H          -6.0288    0.0338    6.8615 H       1  UNL1        0.0251
    175 H          -7.7591   -0.1716    6.5929 H       1  UNL1        0.0251
    176 H          -7.1858    0.6206    8.0580 H       1  UNL1        0.0251
    177 H          -6.7853    4.4059    5.3361 H       1  UNL1        0.0621
    178 H          -5.2318    6.1732    6.0681 H       1  UNL1        0.0618
    179 H          -3.6414    5.7449    7.9233 H       1  UNL1        0.0618
    180 H          -3.6248    3.5360    9.0486 H       1  UNL1        0.0618
    181 H          -5.1628    1.7680    8.3382 H       1  UNL1        0.0621
    182 H          -4.4739    2.1320    5.1581 H       1  UNL1        0.0560
    183 H          -4.0389    1.6456    3.5411 H       1  UNL1        0.0560
    184 H          -4.8267   -0.5234    2.9003 H       1  UNL1        0.0548
    185 H          -2.1293    0.0034    3.1346 H       1  UNL1        0.0621
    186 H          -0.0637   -1.1606    2.4645 H       1  UNL1        0.0618
    187 H          -0.0099   -3.6377    2.3433 H       1  UNL1        0.0618
    188 H          -2.0364   -4.9443    2.9133 H       1  UNL1        0.0618
    189 H          -4.0986   -3.8089    3.5929 H       1  UNL1        0.0621
    190 H          -5.6159   -2.5219    5.0485 H       1  UNL1        0.0251
    191 H          -6.0454   -2.5414    3.3308 H       1  UNL1        0.0251
    192 H          -6.6437   -1.2565    4.3733 H       1  UNL1        0.0251
    193 H          -3.6275   -2.2844    5.8632 H       1  UNL1        0.0560
    194 H          -4.2392   -1.5892    7.3452 H       1  UNL1        0.0560
    195 H          -2.0441   -1.8523    9.3821 H       1  UNL1        0.0514
    196 H          -2.8204   -0.4268    8.7364 H       1  UNL1        0.0514
    197 H          -0.4972   -0.8384   10.8389 H       1  UNL1        0.0622
    198 H           1.6544    0.3272   11.1410 H       1  UNL1        0.0654
    199 H           2.8840    3.4116    8.2706 H       1  UNL1        0.0660
    200 H           3.7877    2.0884    7.4648 H       1  UNL1        0.0660
    201 H           4.5040    2.9440    8.8567 H       1  UNL1        0.0660
    202 H           1.5661    1.5433    7.0111 H       1  UNL1        0.0654
    203 H          -0.5653    0.3764    6.7079 H       1  UNL1        0.0622
    204 H          -0.4276   -3.7112    8.6614 H       1  UNL1        0.0560
    205 H           0.3600   -2.2950    7.9368 H       1  UNL1        0.0560
    206 H           0.2075   -3.2920    5.2013 H       1  UNL1        0.0548
    207 H          -0.6302   -5.8940    5.5212 H       1  UNL1        0.0621
    208 H          -0.5390   -7.9535    4.1775 H       1  UNL1        0.0618
    209 H           1.3478   -8.3411    2.6133 H       1  UNL1        0.0618
    210 H           3.1481   -6.6476    2.4099 H       1  UNL1        0.0618
    211 H           3.0767   -4.5923    3.7395 H       1  UNL1        0.0621
    212 H           2.0270   -1.8616    5.9533 H       1  UNL1        0.0251
    213 H           2.2654   -2.4594    4.3118 H       1  UNL1        0.0251
    214 H           3.1912   -3.1601    5.6547 H       1  UNL1        0.0251
    215 H           1.1131   -5.3973    9.6454 H       1  UNL1        0.0560
    216 H           1.5084   -3.6908    9.5714 H       1  UNL1        0.0560
    217 H           5.0043   -4.0881    9.2399 H       1  UNL1        0.0548
    218 H           3.3921   -2.5680    8.2074 H       1  UNL1        0.0251
    219 H           4.5137   -1.7251    9.2677 H       1  UNL1        0.0251
    220 H           2.8645   -2.0121    9.8116 H       1  UNL1        0.0251
    221 H           2.6775   -3.3945   12.1421 H       1  UNL1        0.0621
    222 H           3.4945   -3.0117   14.4426 H       1  UNL1        0.0618
    223 H           5.9304   -2.9320   14.9024 H       1  UNL1        0.0618
    224 H           7.5511   -3.2262   13.0489 H       1  UNL1        0.0618
    225 H           6.7451   -3.6053   10.7423 H       1  UNL1        0.0621
    226 H           5.5935   -5.9227    9.8829 H       1  UNL1        0.0560
    227 H           5.1865   -6.3783   11.5437 H       1  UNL1        0.0560
    228 H           4.1405   -7.5927    8.3161 H       1  UNL1        0.0465
    229 H           4.3506   -9.2778    8.7339 H       1  UNL1        0.0465
    230 H           6.9902   -8.5557    8.2843 H       1  UNL1        0.0282
    231 H           6.1794   -7.3538    7.3049 H       1  UNL1        0.0282
    232 H           4.8564   -9.3892    6.2529 H       1  UNL1        0.0317
    233 H           6.5118   -9.0782    5.7652 H       1  UNL1        0.0317
    234 H           6.2250  -11.4919    6.1667 H       1  UNL1        0.0813
    235 H           7.3743  -10.8084    7.3442 H       1  UNL1        0.0813
    236 H           5.5570   -8.1538   12.8755 H       1  UNL1        0.0560
    237 H           7.0074   -7.5523   12.0770 H       1  UNL1        0.0560
    238 H           5.6054   -9.6641   14.2098 H       1  UNL1        0.0548
    239 H           5.7535   -7.9259   15.6942 H       1  UNL1        0.0621
    240 H           6.8213   -6.8685   17.6519 H       1  UNL1        0.0618
    241 H           9.0053   -7.7026   18.4835 H       1  UNL1        0.0618
    242 H          10.1098   -9.6093   17.3516 H       1  UNL1        0.0618
    243 H           9.0587  -10.6780   15.4031 H       1  UNL1        0.0621
    244 H           7.4572  -12.0427   14.3757 H       1  UNL1        0.0251
    245 H           6.0137  -11.9181   13.3580 H       1  UNL1        0.0251
    246 H           5.8785  -11.8064   15.1169 H       1  UNL1        0.0251
    247 H           9.0690   -7.9803   11.6193 H       1  UNL1        0.0560
    248 H           8.4583   -9.1560   10.4447 H       1  UNL1        0.0560
    249 H          11.8689   -9.7964    9.5158 H       1  UNL1        0.0548
    250 H          12.6071  -11.9026    9.0388 H       1  UNL1        0.0621
    251 H          12.2656  -14.3401    8.8814 H       1  UNL1        0.0618
    252 H          10.0367  -15.3211    9.3463 H       1  UNL1        0.0618
    253 H           8.1416  -13.8469    9.9647 H       1  UNL1        0.0618
    254 H           8.4631  -11.4077   10.1062 H       1  UNL1        0.0621
    255 H           9.0870   -9.4573    8.4171 H       1  UNL1        0.0251
    256 H          10.6249   -9.5216    7.5646 H       1  UNL1        0.0251
    257 H          10.2663   -8.1437    8.6118 H       1  UNL1        0.0251
    258 H          13.3983   -9.2290   11.2116 H       1  UNL1        0.0560
    259 H          12.6458  -10.8297   11.3200 H       1  UNL1        0.0560
    260 H          13.0762  -11.9799   14.1352 H       1  UNL1        0.0514
    261 H          11.6756  -10.9895   13.8045 H       1  UNL1        0.0514
    262 H          12.8256   -8.2840   14.8929 H       1  UNL1        0.0622
    263 H          12.9474   -7.3836   17.1764 H       1  UNL1        0.0654
    264 H          14.2721  -10.0186   20.4581 H       1  UNL1        0.0660
    265 H          13.3709   -8.8185   21.4243 H       1  UNL1        0.0660
    266 H          12.5169  -10.2352   20.7562 H       1  UNL1        0.0660
    267 H          12.9040  -11.3891   18.7562 H       1  UNL1        0.0654
    268 H          12.7680  -12.2868   16.4781 H       1  UNL1        0.0622
    269 H          15.1219  -11.5073   14.7689 H       1  UNL1        0.0520
    270 H          15.6021   -9.8383   15.1232 H       1  UNL1        0.0520
    271 H          17.5217  -11.1912   14.9825 H       1  UNL1        0.1230
    272 H          16.7245  -11.8889   12.2359 H       1  UNL1        0.0507
    273 H          15.3086  -13.7231   12.0720 H       1  UNL1        0.0621
    274 H          14.3513  -15.8175   12.9745 H       1  UNL1        0.0618
    275 H          15.1375  -16.7096   15.1519 H       1  UNL1        0.0618
    276 H          16.8849  -15.4970   16.4282 H       1  UNL1        0.0618
    277 H          17.8466  -13.4034   15.5351 H       1  UNL1        0.0621
    278 H          19.3099  -12.4825   13.7482 H       1  UNL1        0.0248
    279 H          19.1095  -11.3710   12.3842 H       1  UNL1        0.0248
    280 H          18.8778  -13.1088   12.1479 H       1  UNL1        0.0248
@<TRIPOS>BOND
     1     1     2   am
     2     2     3    1
     3     3     4    1
     4     4     5    1
     5     5     6    1
     6     5     7    1
     7     7     8   ar
     8     8     9   ar
     9     9    10   ar
    10    10    11   ar
    11    11    12   ar
    12     7    12   ar
    13     4    13   am
    14    13    14    1
    15    14    15    1
    16    15    16    1
    17    16    17    1
    18    17    18    1
    19    18    19    1
    20    19    20    1
    21    20    21    1
    22    20    22    1
    23    20    23    1
    24    15    24   am
    25    24    25    1
    26    25    26    1
    27    26    27    1
    28    27    28    1
    29    27    29    1
    30    29    30   ar
    31    30    31   ar
    32    31    32   ar
    33    32    33   ar
    34    33    34   ar
    35    29    34   ar
    36    26    35   am
    37    35    36    1
    38    36    37    1
    39    37    38    1
    40    38    39    1
    41    39    40   ar
    42    40    41   ar
    43    41    42   ar
    44    42    43   ar
    45    43    44   ar
    46    39    44   ar
    47    38    45    1
    48    37    46   am
    49    46    47    1
    50    47    48    1
    51    48    49    1
    52    49    50    1
    53    50    51   ar
    54    51    52   ar
    55    52    53   ar
    56    53    54    1
    57    54    55    1
    58    53    56   ar
    59    56    57   ar
    60    50    57   ar
    61    48    58   am
    62    58    59    1
    63    59    60    1
    64    60    61    1
    65    61    62    1
    66    62    63   ar
    67    63    64   ar
    68    64    65   ar
    69    65    66   ar
    70    66    67   ar
    71    62    67   ar
    72    61    68    1
    73    60    69   am
    74    69    70    1
    75    70    71    1
    76    71    72    1
    77    72    73    1
    78    72    74    1
    79    74    75   ar
    80    75    76   ar
    81    76    77   ar
    82    77    78   ar
    83    78    79   ar
    84    74    79   ar
    85    71    80   am
    86    80    81    1
    87    81    82    1
    88    82    83    1
    89    83    84    1
    90    84    85    1
    91    85    86    1
    92    86    87    1
    93    87    88    1
    94    87    89    1
    95    87    90    1
    96    82    91   am
    97    91    92    1
    98    92    93    1
    99    93    94    1
   100    94    95    1
   101    95    96   ar
   102    96    97   ar
   103    97    98   ar
   104    98    99   ar
   105    99   100   ar
   106    95   100   ar
   107    94   101    1
   108    93   102   am
   109   102   103    1
   110   103   104    1
   111   104   105    1
   112   105   106    1
   113   106   107   ar
   114   107   108   ar
   115   108   109   ar
   116   109   110   ar
   117   110   111   ar
   118   106   111   ar
   119   105   112    1
   120   104   113   am
   121   113   114    1
   122   114   115    1
   123   115   116    1
   124   116   117    1
   125   117   118   ar
   126   118   119   ar
   127   119   120   ar
   128   120   121    1
   129   121   122    1
   130   120   123   ar
   131   123   124   ar
   132   117   124   ar
   133   115   125   am
   134   125   126    1
   135   126   127    1
   136   127   128    1
   137   128   129    1
   138   129   130   ar
   139   130   131   ar
   140   131   132   ar
   141   132   133   ar
   142   133   134   ar
   143   129   134   ar
   144   128   135    1
   145   125   136    2
   146   113   137    2
   147   102   138    2
   148    91   139    2
   149    80   140    2
   150    69   141    2
   151    58   142    2
   152    46   143    2
   153    35   144    2
   154    24   145    2
   155    13   146    2
   156     2   147    2
   157     1   148    1
   158     1   149    1
   159     3   150    1
   160     3   151    1
   161     5   152    1
   162     6   153    1
   163     6   154    1
   164     6   155    1
   165     8   156    1
   166     9   157    1
   167    10   158    1
   168    11   159    1
   169    12   160    1
   170    14   161    1
   171    14   162    1
   172    16   163    1
   173    16   164    1
   174    17   165    1
   175    17   166    1
   176    18   167    1
   177    18   168    1
   178    19   169    1
   179    19   170    1
   180    25   171    1
   181    25   172    1
   182    27   173    1
   183    28   174    1
   184    28   175    1
   185    28   176    1
   186    30   177    1
   187    31   178    1
   188    32   179    1
   189    33   180    1
   190    34   181    1
   191    36   182    1
   192    36   183    1
   193    38   184    1
   194    40   185    1
   195    41   186    1
   196    42   187    1
   197    43   188    1
   198    44   189    1
   199    45   190    1
   200    45   191    1
   201    45   192    1
   202    47   193    1
   203    47   194    1
   204    49   195    1
   205    49   196    1
   206    51   197    1
   207    52   198    1
   208    55   199    1
   209    55   200    1
   210    55   201    1
   211    56   202    1
   212    57   203    1
   213    59   204    1
   214    59   205    1
   215    61   206    1
   216    63   207    1
   217    64   208    1
   218    65   209    1
   219    66   210    1
   220    67   211    1
   221    68   212    1
   222    68   213    1
   223    68   214    1
   224    70   215    1
   225    70   216    1
   226    72   217    1
   227    73   218    1
   228    73   219    1
   229    73   220    1
   230    75   221    1
   231    76   222    1
   232    77   223    1
   233    78   224    1
   234    79   225    1
   235    81   226    1
   236    81   227    1
   237    83   228    1
   238    83   229    1
   239    84   230    1
   240    84   231    1
   241    85   232    1
   242    85   233    1
   243    86   234    1
   244    86   235    1
   245    92   236    1
   246    92   237    1
   247    94   238    1
   248    96   239    1
   249    97   240    1
   250    98   241    1
   251    99   242    1
   252   100   243    1
   253   101   244    1
   254   101   245    1
   255   101   246    1
   256   103   247    1
   257   103   248    1
   258   105   249    1
   259   107   250    1
   260   108   251    1
   261   109   252    1
   262   110   253    1
   263   111   254    1
   264   112   255    1
   265   112   256    1
   266   112   257    1
   267   114   258    1
   268   114   259    1
   269   116   260    1
   270   116   261    1
   271   118   262    1
   272   119   263    1
   273   122   264    1
   274   122   265    1
   275   122   266    1
   276   123   267    1
   277   124   268    1
   278   126   269    1
   279   126   270    1
   280   127   271    1
   281   128   272    1
   282   130   273    1
   283   131   274    1
   284   132   275    1
   285   133   276    1
   286   134   277    1
   287   135   278    1
   288   135   279    1
   289   135   280    1
